RUNSPEC
NOECHO
TITLE
2D 24wells Joonyi

DIMENS
 60 60 1 /
FIELD

OIL
WATER

START
1 MAR 2018 /
WELLDIMS
48 48 48 48 /

UNIFOUT
UNIFIN

NSTACK
15/

GRID
GRIDFILE
0 0/
TOPS
3600*4200.0 /
DX
3600*120.0 /
DY
3600*120.0 /
DZ
3600*40.0 /
PORO     
3600*0.2 /

INCLUDE
'2D_PERMX1.DATA' /
COPY
'PERMX' 'PERMY' /
/
PERMZ
3600*0.001 /

PROPS
PVDO
0.0      1.01202  3.0
1000.0	 1.01101  3.0
2000.0   1.01     3.0  /

PVTW
2000.0      1.00        5.00E-07  1.0  /
 
ROCK
2000.0     3.00E-05  /

DENSITY
48.623232    62.312542      0.06054  /

SWOF
--RelPerm1
--0.2490	0.00E+00	4.00E-01  0
--0.2520	3.00E-10	4.00E-01  0
--0.2526	6.00E-10	3.98E-01  0
--0.2532	4.80E-09	3.96E-01  0
--0.2550	7.50E-08	3.90E-01  0
--0.2580	6.00E-07	3.80E-01  0
--0.2640	4.80E-06	3.62E-01  0
--0.2819	7.50E-05	3.10E-01  0
--0.3118	6.00E-04	2.36E-01  0
--0.3716	4.80E-03	1.31E-01  0
--0.4314	1.62E-02	6.72E-02  0
--0.4912	3.84E-02	3.11E-02  0
--0.5510	7.50E-02	1.25E-02  0
--0.6108	1.30E-01	4.10E-03  0
--0.6706	2.06E-01	9.72E-04  0
--0.7304	3.07E-01	1.28E-04  0
--0.7902	4.37E-01	4.00E-06  0
--0.8500	6.00E-01	0.00E+00  0
--1.0000	1.00E+00	0.00E+00  0
--/

--RelPerm2
--0.2		0		0.81	0
--0.25	0		0.81	0
--0.27	0.002	0.7512	0
--0.3		0.005	0.663	0
--0.33	0.0092	0.5622	0
--0.35	0.012	0.495	0
--0.4		0.021	0.362	0
--0.45	0.032	0.261	0
--0.5		0.048	0.185	0
--0.55	0.068	0.128	0
--0.6		0.089	0.081	0
--0.65	0.119	0.049	0
--0.67	0.137	0.035	0
--0.7		0.158	0.022	0
--0.73	0.181	0.016	0
--0.75	0.211	0.009	0
--0.8		0.27	0	0
--/

--RelPerm3
--0.18	0       1       0
--0.32	0.07	0.38	0
--0.5     0.31	0.05	0
--0.6     0.38	0.004	0
--0.8     0.57	0       0
--1       1       0       0
--/

--RelPerm2(rev)
0.2		0		0.405  		0
0.25	0		0.405       0
0.27	0.002	0.3756      0
0.3		0.005	0.3315      0
0.33	0.0092	0.2811      0
0.35	0.012	0.2475      0
0.4		0.021	0.181       0
0.45	0.032	0.1305      0
0.5		0.048	0.0925      0
0.55	0.068	0.064       0
0.6		0.089	0.0405      0
0.65	0.119	0.0245      0
0.67	0.137	0.0175      0
0.7		0.158	0.011       0
0.73	0.181	0.008       0
0.75	0.211	0.0045      0
0.8		0.27	0           0
/

SOLUTION
PRESSURE
3600*3500.0 /

SWAT
3600*0.25 /

SUMMARY
RUNSUM
SEPARATE
RPTONLY

FOPT
FWPT
FWIT
--WOPR
--'P*'/
--WBHP
--'P*' 'I*'/
TCPU

SCHEDULE
ZIPPY2
'SIM=3.1' 'MINSTEP=0.0000001' /

INCLUDE
'2D_POSITION1.DATA' /

INCLUDE
'2D_CONSTRAINT1.DATA' /

end